test/test_files/validation_tests/case2746wop.m
function mpc = case2746wop
%CASE2746WOP    Power flow data for Polish system - winter 2003-04 off-peak.
%   Please see CASEFORMAT for details on the case file format.
%
%   This case represents the Polish 400, 220 and 110 kV networks during
%   winter 2003-04 off-peak conditions. Multiple centrally dispatchable
%   generators at a bus have not been aggregated. Generators that are
%   not centrally dispatchable in the Polish energy market are given a
%   cost of zero.
%
%   This data was graciously provided by, and is distributed with the
%   permission of, Roman Korab <roman.korab@polsl.pl>.

%   MATPOWER

%% MATPOWER Case Format : Version 2
mpc.version = '2';

%%-----  Power Flow Data  -----%%
%% system MVA base
mpc.baseMVA = 100;

%% bus data
%    bus_i    type    Pd    Qd    Gs    Bs    area    Vm    Va    baseKV    zone    Vmax    Vmin    lam_P    lam_Q    mu_Vmax    mu_Vmin
mpc.bus = [
    1    1    0    0    0    0    1    1.1003396    -5.8041144    220    1    1.11    0.95    91.0752    0.1612    0.0000    0.0000;
    2    1    0    0    0    0    1    1.1039808    -2.5080831    220    1    1.11    0.95    90.2372    0.0981    0.0000    0.0000;
    3    1    0    0    0    0    1    1.0727181    -22.67999    220    1    1.11    0.95    99.4746    0.0556    0.0000    0.0000;
    4    1    0    0    0    0    1    1.0979142    -8.8291158    220    1    1.11    0.95    92.5348    0.2170    0.0000    0.0000;
    5    1    0    0    0    0    1    1.0979424    -8.8358003    220    1    1.11    0.95    92.5362    0.2166    0.0000    0.0000;
    6    1    0    0    0    0    1    1.0787899    -16.503557    220    1    1.11    0.95    95.7776    0.0797    0.0000    0.0000;
    7    1    0    0    0    0    1    1.0788162    -16.497825    220    1    1.11    0.95    95.7746    0.0792    0.0000    0.0000;
    8    1    0    0    0    -50    1    1.029636    -14.94355    400    1    1.05    0.95    95.4057    -0.1452    0.0000    0.0000;
    9    1    0    0    0    0    1    1.0296346    -14.945198    400    1    1.05    0.95    95.4074    -0.1448    0.0000    0.0000;
    10    1    0    0    0    0    1    1.0764851    -16.871989    220    1    1.11    0.95    96.2651    0.1446    0.0000    0.0000;
    11    1    0    0    0    0    1    1.0764187    -16.885088    220    1    1.11    0.95    96.2675    0.1441    0.0000    0.0000;
    12    1    0    0    0    0    1    1.0764286    -16.878588    220    1    1.11    0.95    96.2643    0.1418    0.0000    0.0000;
    13    1    0    0    0    -50    1    1.0247184    -13.167523    400    1    1.05    0.95    94.7302    0.1268    0.0000    0.0000;
    14    1    0    0    0    0    1    1.0248019    -13.162182    400    1    1.05    0.95    94.7274    0.1254    0.0000    0.0000;
    15    1    0    0    0    0    1    1.0390928    -16.217261    400    1    1.05    0.95    95.2293    -1.3509    0.0000    0.0000;
    16    1    0    0    0    0    1    1.0390928    -16.217261    400    1    1.05    0.95    95.2293    -1.3509    0.0000    0.0000;
    17    2    2.302    31    0    0    1    1.1007402    -18.634562    220    1    1.11    0.95    97.2041    -0.0000    0.0000    0.0000;
    18    2    9.7    40    0    0    1    1.1008786    -18.636829    220    1    1.11    0.95    97.2054    0.0000    0.0000    0.0000;
    19    1    0    0    0    0    1    1.0998027    -8.0293797    220    1    1.11    0.95    92.1699    0.2155    0.0000    0.0000;
    20    1    0    0    0    0    1    1.0997938    -8.025711    220    1    1.11    0.95    92.1708    0.2158    0.0000    0.0000;
    21    1    0    0    0    0    1    1.0907944    -18.579546    220    1    1.11    0.95    97.1328    0.0143    0.0000    0.0000;
    22    1    0    0    0    0    1    1.0907944    -18.579546    220    1    1.11    0.95    97.1328    0.0143    0.0000    0.0000;
    23    1    0    0    0    0    1    1.0767644    -16.828683    220    1    1.11    0.95    96.1970    0.0700    0.0000    0.0000;
    24    1    0    0    0    0    1    1.1002404    -5.9666469    220    1    1.11    0.95    91.4932    0.1722    0.0000    0.0000;
    25    1    0    0    0    -50    1    1.0208745    -17.645776    400    1    1.05    0.95    97.1084    0.9915    0.0000    0.0000;
    26    2    28.565    42.054    0    0    1    1.1094364    -5.6168012    220    1    1.11    0.95    90.9717    -0.0000    0.0000    0.0000;
    27    2    85.005    122.06    0    0    1    1.11    -2.2752568    220    1    1.11    0.95    90.1299    0.0000    1246.2206    0.0000;
    28    3    44.783    80    0    0    1    1.048419    -4.412957    400    1    1.05    0.95    91.1767    -0.0000    0.0000    0.0000;
    29    2    60.097    90    0    0    1    1.0484076    -4.4038563    400    1    1.05    0.95    91.1718    -0.0017    0.0000    0.0000;
    30    1    0    0    0    0    1    1.0806119    -18.048309    220    1    1.11    0.95    97.0716    0.1704    0.0000    0.0000;
    31    1    0    0    0    0    1    1.0490196    -5.4090272    400    1    1.05    0.95    91.2070    -0.3208    0.0000    0.0000;
    32    1    0    0    0    0    1    1.0750736    -17.031979    220    1    1.11    0.95    96.3326    0.1655    0.0000    0.0000;
    33    1    0    0    0    0    1    1.1002441    -5.9657856    220    1    1.11    0.95    91.4930    0.1722    0.0000    0.0000;
    34    1    0    0    0    0    1    1.1001336    -11.700376    220    1    1.11    0.95    93.7432    0.1876    0.0000    0.0000;
    35    1    0    0    0    0    1    1.0930028    -14.672176    220    2    1.11    0.95    94.7883    -0.8657    0.0000    0.0000;
    36    1    0    0    0    0    1    1.0813334    -15.095174    220    2    1.11    0.95    95.3394    -0.8172    0.0000    0.0000;
    37    1    0    0    0    0    1    1.090534    -14.116108    220    2    1.11    0.95    94.7038    -1.0768    0.0000    0.0000;
    38    1    0    0    0    0    1    1.0905091    -14.11899    220    2    1.11    0.95    94.7053    -1.0765    0.0000    0.0000;
    39    1    0    0    0    0    1    1.0853026    -15.717887    220    2    1.11    0.95    95.6296    -0.6557    0.0000    0.0000;
    40    1    0    0    0    0    1    1.11    -13.425662    220    2    1.11    0.95    94.1415    -3.4975    20377.2614    0.0000;
    41    1    0    0    0    0    1    1.1099097    -13.42867    220    2    1.11    0.95    94.1434    -3.4837    0.0000    0.0000;
    42    1    0    0    0    0    1    1.026429    -13.487985    400    2    1.05    0.95    94.2405    -2.4059    0.0000    0.0000;
    43    2    12    0    0    0    1    1.0984004    -13.307731    220    2    1.11    0.95    94.2528    -0.6891    0.0000    0.0000;
    44    2    24    0    0    0    1    1.0983481    -13.292422    220    2    1.11    0.95    94.2488    -0.6908    0.0000    0.0000;
    45    2    20    0    0    0    1    1.0325913    -13.232481    400    2    1.05    0.95    94.5600    -0.5862    0.0000    0.0000;
    46    1    0    0    0    0    1    1.032567    -13.234248    400    2    1.05    0.95    94.5595    -0.5865    0.0000    0.0000;
    47    1    0    0    0    0    1    1.1087361    -13.856041    220    2    1.11    0.95    94.4268    -3.3016    0.0000    0.0000;
    48    1    0    0    0    0    1    1.0284578    -17.17828    400    2    1.05    0.95    95.6142    -0.6768    0.0000    0.0000;
    49    1    0    0    0    0    1    1.0284335    -17.183891    400    2    1.05    0.95    95.6169    -0.6759    0.0000    0.0000;
    50    1    0    0    0    0    1    1.0284061    -13.715843    400    2    1.05    0.95    94.6694    -0.6383    0.0000    0.0000;
    51    1    0    0    0    0    1    1.085418    -14.827225    220    2    1.11    0.95    95.0503    -0.6626    0.0000    0.0000;
    52    1    0    0    0    0    1    1.0854171    -14.824059    220    2    1.11    0.95    95.0503    -0.6619    0.0000    0.0000;
    53    1    0    0    0    0    1    1.0367923    -13.975449    400    2    1.05    0.95    94.6640    -1.0822    0.0000    0.0000;
    54    1    0    0    0    0    1    1.0368177    -13.975713    400    2    1.05    0.95    94.6638    -1.0834    0.0000    0.0000;
    55    2    12    0    0    0    1    1.0933675    -13.241702    220    2    1.11    0.95    94.2858    -1.1741    0.0000    0.0000;
    56    2    12    0    0    0    1    1.0933406    -13.24139    220    2    1.11    0.95    94.2831    -1.1766    0.0000    0.0000;
    57    2    12    0    0    0    1    1.0399269    -13.602589    400    2    1.05    0.95    94.4699    -1.2205    0.0000    0.0000;
    58    2    12    0    0    0    1    1.0399116    -13.607331    400    2    1.05    0.95    94.4716    -1.2215    0.0000    0.0000;
    59    2    170.733    62    0    0    1    1.0905288    -14.340794    220    2    1.11    0.95    94.7184    -0.7196    0.0000    0.0000;
    60    1    0    0    0    0    1    1.0905917    -14.3368    220    2    1.11    0.95    94.7166    -0.7200    0.0000    0.0000;
    61    1    0    0    0    0    1    1.1039125    -13.978585    220    2    1.11    0.95    94.4607    -2.8150    0.0000    0.0000;
    62    1    0    0    0    0    1    1.0972139    -14.122428    220    2    1.11    0.95    94.7122    -1.2575    0.0000    0.0000;
    63    1    0    0    0    0    1    1.0971852    -14.124141    220    2    1.11    0.95    94.7125    -1.2535    0.0000    0.0000;
    64    1    0    0    0    0    1    1.0393295    -14.834542    400    2    1.05    0.95    94.8460    -0.9549    0.0000    0.0000;
    65    1    0    0    0    0    1    1.0392873    -14.845309    400    2    1.05    0.95    94.8501    -0.9534    0.0000    0.0000;
    66    1    0    0    0    0    1    1.0885809    -14.851473    220    2    1.11    0.95    95.0154    -0.9744    0.0000    0.0000;
    67    1    0    0    0    0    1    1.089995    -14.701292    220    2    1.11    0.95    94.9206    -0.9983    0.0000    0.0000;
    68    1    0    0    0    0    1    1.0846849    -14.135762    220    2    1.11    0.95    94.7452    -0.5656    0.0000    0.0000;
    69    1    0    0    0    0    1    1.0984623    -9.2101367    220    3    1.11    0.95    92.5536    -0.4363    0.0000    0.0000;
    70    1    6.8    0    0    0    1    1.097636    -14.395557    220    3    1.11    0.95    94.8577    -0.6622    0.0000    0.0000;
    71    1    11.331    2.43    0    0    1    1.0975064    -14.403378    220    3    1.11    0.95    94.8625    -0.6605    0.0000    0.0000;
    72    1    0    0    0    0    1    1.0946558    -13.203738    220    3    1.11    0.95    94.4287    0.0529    0.0000    0.0000;
    73    1    0    0    0    0    1    1.0946671    -13.188287    220    3    1.11    0.95    94.4232    0.0520    0.0000    0.0000;
    74    1    0    0    0    0    1    1.1051601    -10.740817    220    3    1.11    0.95    92.8448    -0.0061    0.0000    0.0000;
    75    1    0    0    0    0    1    1.105133    -10.745835    220    3    1.11    0.95    92.8468    -0.0061    0.0000    0.0000;
    76    1    0    0    0    0    1    1.0977557    -17.582249    220    3    1.11    0.95    96.4839    -0.1590    0.0000    0.0000;
    77    1    0    0    0    0    1    1.0977202    -17.594098    220    3    1.11    0.95    96.4888    -0.1583    0.0000    0.0000;
    78    2    26.999    69.999    0    0    1    1.0964689    -12.136129    220    3    1.11    0.95    93.8755    0.0000    0.0000    0.0000;
    79    2    8.999    20.999    0    0    1    1.0978822    -12.713425    220    3    1.11    0.95    94.1106    -0.1274    0.0000    0.0000;
    80    1    10.085    1.376    0    0    1    1.0931866    -12.507737    220    3    1.11    0.95    94.2409    0.1606    0.0000    0.0000;
    81    1    0    0    0    0    1    1.093188    -12.511077    220    3    1.11    0.95    94.2426    0.1602    0.0000    0.0000;
    82    2    34.999    107.999    0    0    1    1.0444058    -6.4720845    400    3    1.05    0.95    91.2673    -0.2746    0.0000    0.0000;
    83    1    0    0    0    0    1    1.1049043    -10.293455    220    3    1.11    0.95    92.2247    0.1083    0.0000    0.0000;
    84    1    0    0    0    0    1    1.1026824    -11.36773    220    3    1.11    0.95    93.1712    0.0061    0.0000    0.0000;
    85    1    0    0    0    0    1    1.1026432    -11.377001    220    3    1.11    0.95    93.1761    0.0057    0.0000    0.0000;
    86    1    44.148    10.561    0    0    1    1.0984388    -9.2863579    220    3    1.11    0.95    92.5076    -0.3943    0.0000    0.0000;
    87    1    0    0    0    0    1    1.0984259    -9.2914791    220    3    1.11    0.95    92.5093    -0.3942    0.0000    0.0000;
    88    1    0    0    0    0    1    1.0937893    -11.307709    220    3    1.11    0.95    93.2279    0.1169    0.0000    0.0000;
    89    1    0    0    0    0    1    1.0937779    -11.31451    220    3    1.11    0.95    93.2313    0.1172    0.0000    0.0000;
    90    1    0    0    0    0    1    1.1006589    -8.8485145    220    3    1.11    0.95    92.3093    -0.4196    0.0000    0.0000;
    91    1    0    0    0    0    1    1.1006662    -8.8442565    220    3    1.11    0.95    92.3084    -0.4230    0.0000    0.0000;
    92    1    0    0    0    0    1    1.0494747    -6.6627576    400    3    1.05    0.95    91.9021    -0.2194    0.0000    0.0000;
    93    1    0    0    0    0    1    1.0494739    -6.6630247    400    3    1.05    0.95    91.9019    -0.2193    0.0000    0.0000;
    94    1    0    0    0    0    1    1.1018218    -10.698364    220    3    1.11    0.95    92.6759    0.0145    0.0000    0.0000;
    95    1    0    0    0    0    1    1.1018628    -10.698531    220    3    1.11    0.95    92.6753    0.0147    0.0000    0.0000;
    96    1    0    0    0    0    1    1.1057907    -10.479777    220    3    1.11    0.95    92.5431    0.0805    0.0000    0.0000;
    97    1    0    0    0    0    1    1.1057932    -10.478906    220    3    1.11    0.95    92.5417    0.0805    0.0000    0.0000;
    98    1    17.111    6.317    0    0    1    1.0963136    -12.427766    220    3    1.11    0.95    93.9483    -0.3273    0.0000    0.0000;
    99    1    0    0    0    0    1    1.0963094    -12.423739    220    3    1.11    0.95    93.9468    -0.3292    0.0000    0.0000;
    100    1    0    0    0    0    1    1.0976761    -14.377845    220    3    1.11    0.95    94.8491    -0.6629    0.0000    0.0000;
    101    1    0    0    0    0    1    1.0976653    -14.379626    220    3    1.11    0.95    94.8497    -0.6616    0.0000    0.0000;
    102    1    0    0    0    0    1    1.0968926    -16.800572    220    3    1.11    0.95    96.1741    -0.0690    0.0000    0.0000;
    103    1    0    0    0    0    1    1.096839    -16.788467    220    3    1.11    0.95    96.1712    -0.0678    0.0000    0.0000;
    104    2    13.999    39.999    0    0    1    1.1058911    -10.737461    220    3    1.11    0.95    92.7800    0.0000    0.0000    0.0000;
    105    2    0    0    0    0    1    1.1058905    -10.750145    220    3    1.11    0.95    92.7824    -0.0003    0.0000    0.0000;
    106    2    6.999    17.999    0    0    1    1.0998576    -10.553363    220    3    1.11    0.95    92.7163    0.0000    0.0000    0.0000;
    107    2    7.999    14.999    0    0    1    1.0997476    -10.555772    220    3    1.11    0.95    92.7189    0.0002    0.0000    0.0000;
    108    1    52.726    17.138    0    0    1    1.0956641    -11.948298    220    3    1.11    0.95    93.7112    -0.5284    0.0000    0.0000;
    109    1    56.444    10.902    0    0    1    1.095698    -11.961463    220    3    1.11    0.95    93.7153    -0.5333    0.0000    0.0000;
    110    1    0    0    0    0    1    1.093902    -13.568177    220    3    1.11    0.95    94.7342    -0.0907    0.0000    0.0000;
    111    1    0    0    0    0    1    1.0939286    -11.62069    220    3    1.11    0.95    93.5850    0.3044    0.0000    0.0000;
    112    1    0    0    0    0    1    1.0939386    -11.625092    220    3    1.11    0.95    93.5870    0.3038    0.0000    0.0000;
    113    1    0    0    0    0    1    1.0928751    -12.746764    220    3    1.11    0.95    94.3987    0.1266    0.0000    0.0000;
    114    1    0    0    0    0    1    1.0929005    -12.742224    220    3    1.11    0.95    94.3959    0.1257    0.0000    0.0000;
    115    1    0    0    0    0    1    1.040122    -9.1865909    400    3    1.05    0.95    92.5453    -0.1809    0.0000    0.0000;
    116    2    0    0    0    0    1    1.0957717    -12.485668    220    3    1.11    0.95    94.0393    -0.1175    0.0000    0.0000;
    117    2    7.999    14.999    0    0    1    1.0957311    -12.476078    220    3    1.11    0.95    94.0370    -0.1170    0.0000    0.0000;
    118    2    5.499    9.999    0    0    1    1.0999227    -13.165235    220    3    1.11    0.95    94.4918    -0.2638    0.0000    0.0000;
    119    1    0    0    0    0    1    1.0999096    -13.17059    220    3    1.11    0.95    94.4941    -0.2640    0.0000    0.0000;
    120    1    0    0    0    0    1    1.042963    -13.58135    400    3    1.05    0.95    94.4477    -0.9211    0.0000    0.0000;
    121    1    0    0    0    0    1    1.0429996    -13.574265    400    3    1.05    0.95    94.4444    -0.9215    0.0000    0.0000;
    122    1    0    0    0    0    1    1.0434218    -9.342175    400    3    1.05    0.95    92.6467    -0.2911    0.0000    0.0000;
    123    1    0    0    0    0    1    1.0434566    -9.340653    400    3    1.05    0.95    92.6469    -0.2918    0.0000    0.0000;
    124    1    0    0    0    0    1    1.0942312    -13.598007    220    3    1.11    0.95    94.7830    -0.1073    0.0000    0.0000;
    125    2    19.213    21.474    0    0    1    1.11    -9.7385765    220    3    1.11    0.95    92.2959    0.0000    312.7178    0.0000;
    126    2    30.672    33.602    0    0    1    1.1099486    -9.7467082    220    3    1.11    0.95    92.3016    0.0014    0.0000    0.0000;
    127    2    27.999    65.999    0    0    1    1.0401443    -8.1111678    400    3    1.05    0.95    92.1616    -0.1196    0.0000    0.0000;
    128    1    0    0    0    0    1    1.0401433    -8.1210678    400    3    1.05    0.95    92.1654    -0.1198    0.0000    0.0000;
    129    1    0    0    0    0    1    1.0980766    -9.3931842    220    3    1.11    0.95    92.5556    -0.3920    0.0000    0.0000;
    130    1    0    0    0    0    1    1.0980814    -9.3920832    220    3    1.11    0.95    92.5538    -0.3914    0.0000    0.0000;
    131    1    0    0    0    0    1    1.0993526    -9.2111481    220    3    1.11    0.95    92.4642    -0.3832    0.0000    0.0000;
    132    2    271.999    -62.001    0    0    1    1.0990964    -18.413405    220    3    1.11    0.95    96.8483    -0.2373    0.0000    0.0000;
    133    2    266.5    -24.8    0    0    1    1.097002    -18.398163    220    3    1.11    0.95    96.8472    -0.1873    0.0000    0.0000;
    134    2    14.931    12.88    0    0    1    1.1065123    -13.462082    220    4    1.11    0.95    94.6117    -0.0000    0.0000    0.0000;
    135    2    8.013    6.525    0    0    1    1.1064205    -13.470946    220    4    1.11    0.95    94.6144    0.0011    0.0000    0.0000;
    136    1    0    0    0    0    1    1.0815293    -16.24031    220    4    1.11    0.95    95.3127    0.0668    0.0000    0.0000;
    137    1    0    0    0    0    1    1.0845102    -15.737843    220    4    1.11    0.95    95.0213    0.0193    0.0000    0.0000;
    138    1    0    0    0    0    1    1.0450222    -13.350134    400    4    1.05    0.95    93.9007    -0.5766    0.0000    0.0000;
    139    1    0    0    0    0    1    1.0450451    -13.346304    400    4    1.05    0.95    93.8981    -0.5778    0.0000    0.0000;
    140    1    0    0    0    0    1    1.104459    -22.571041    220    4    1.11    0.95    99.9483    -2.0055    0.0000    0.0000;
    141    1    0    0    0    0    1    1.0845379    -24.970176    220    4    1.11    0.95    101.9983    -1.4777    0.0000    0.0000;
    142    1    0    0    0    0    1    1.0845379    -24.970176    220    4    1.11    0.95    101.9983    -1.4777    0.0000    0.0000;
    143    1    0    0    0    0    1    1.0868162    -23.55336    220    4    1.11    0.95    100.4360    -1.3126    0.0000    0.0000;
    144    1    0    0    0    0    1    1.0904594    -14.90911    220    4    1.11    0.95    93.9070    -0.1480    0.0000    0.0000;
    145    1    0    0    0    0    1    1.0904594    -14.90911    220    4    1.11    0.95    93.9070    -0.1480    0.0000    0.0000;
    146    2    55.255    6.955    0    0    1    1.1010599    -16.894759    220    4    1.11    0.95    96.4200    -0.0195    0.0000    0.0000;
    147    2    10.077    8.4    0    0    1    1.1010627    -16.90408    220    4    1.11    0.95    96.4222    -0.0209    0.0000    0.0000;
    148    2    11.5    6.86    0    0    1    1.0847972    -24.077917    220    4    1.11    0.95    101.4573    -1.5655    0.0000    0.0000;
    149    1    4.423    1.347    0    0    1    1.0847555    -24.092279    220    4    1.11    0.95    101.4641    -1.5657    0.0000    0.0000;
    150    2    12.633    6.828    0    0    1    1.0209404    -25.772587    400    4    1.05    0.95    101.8467    -1.7352    0.0000    0.0000;
    151    2    12.397    10.045    0    0    1    1.0209246    -25.77869    400    4    1.05    0.95    101.8493    -1.7356    0.0000    0.0000;
    152    1    0    0    0    0    1    1.0894799    -22.639017    220    4    1.11    0.95    100.3568    -1.5484    0.0000    0.0000;
    153    1    0    0    0    0    1    1.0822243    -21.657901    220    4    1.11    0.95    99.1685    -0.6388    0.0000    0.0000;
    154    1    0    0    0    0    1    1.0822555    -21.651456    220    4    1.11    0.95    99.1650    -0.6388    0.0000    0.0000;
    155    2    33.593    44.976    0    0    1    1.0890716    -14.012337    220    4    1.11    0.95    94.1898    0.0000    0.0000    0.0000;
    156    2    33.832    45.07    0    0    1    1.0889495    -14.067839    220    4    1.11    0.95    94.4125    0.0000    0.0000    0.0000;
    157    1    0    0    0    0    1    1.0890716    -14.012337    220    4    1.11    0.95    94.1898    0.0000    0.0000    0.0000;
    158    1    0    0    0    0    1    1.0340575    -13.036901    400    4    1.05    0.95    94.1427    -0.1131    0.0000    0.0000;
    159    2    8.687    17.49    0    0    1    1.0340329    -13.034686    400    4    1.05    0.95    94.1427    -0.1124    0.0000    0.0000;
    160    1    0    0    0    0    1    1.0842564    -25.032974    220    4    1.11    0.95    102.0466    -1.6448    0.0000    0.0000;
    161    1    0    0    0    0    1    1.0842564    -25.032974    220    4    1.11    0.95    102.0466    -1.6448    0.0000    0.0000;
    162    1    0    0    0    0    1    1.05    -12.564217    400    4    1.05    0.95    93.1599    -2.0147    8269.9647    0.0000;
    163    1    0    0    0    0    1    1.0483545    -11.638085    400    4    1.05    0.95    92.9831    -0.9545    0.0000    0.0000;
    164    1    0    0    0    0    1    1.0483556    -11.644285    400    4    1.05    0.95    92.9864    -0.9533    0.0000    0.0000;
    165    2    5.495    9.587    0    0    1    1.1008249    -17.138713    220    4    1.11    0.95    96.5419    -0.0000    0.0000    0.0000;
    166    2    10.099    4.886    0    0    1    1.1007016    -17.154685    220    4    1.11    0.95    96.5512    0.0012    0.0000    0.0000;
    167    1    14.36    13.623    0    0    1    1.1007966    -17.139982    220    4    1.11    0.95    96.5424    0.0004    0.0000    0.0000;
    168    1    0    0    0    0    1    1.1079282    -28.127364    220    4    1.11    0.95    103.3368    -2.2224    0.0000    0.0000;
    169    1    0    0    0    0    1    1.087324    -25.067011    220    4    1.11    0.95    102.0493    -1.5190    0.0000    0.0000;
    170    1    0    0    0    0    1    1.11    -23.559049    220    4    1.11    0.95    100.5561    -2.7733    11480.4692    0.0000;
    171    1    0    0    0    0    1    1.1098972    -23.558201    220    4    1.11    0.95    100.5570    -2.7618    0.0000    0.0000;
    172    1    0    0    0    0    1    0.96398571    -24.638265    400    4    1.05    0.95    100.9598    -2.1379    0.0000    0.0000;
    173    1    0    0    0    0    1    0.96398571    -24.638265    400    4    1.05    0.95    100.9598    -2.1379    0.0000    0.0000;
    174    1    0    0    0    0    1    1.0696839    -20.949808    220    4    1.11    0.95    99.3692    -0.3413    0.0000    0.0000;
    175    1    0    0    0    0    1    1.0696958    -20.947885    220    4    1.11    0.95    99.3693    -0.3411    0.0000    0.0000;
    176    1    0    0    0    0    1    1.1082501    -23.792603    220    4    1.11    0.95    100.6723    -2.6840    0.0000    0.0000;
    177    1    0    0    0    0    1    1.0859664    -15.678153    220    4    1.11    0.95    94.9201    -0.0123    0.0000    0.0000;
    178    1    0    0    0    0    1    1.0859993    -15.673145    220    4    1.11    0.95    94.9186    -0.0124    0.0000    0.0000;
    179    1    0    0    0    0    1    1.0917114    -14.683654    220    4    1.11    0.95    94.3367    0.0111    0.0000    0.0000;
    180    1    0    0    0    0    1    1.0917114    -14.683654    220    4    1.11    0.95    94.3367    0.0111    0.0000    0.0000;
    181    1    0    0    0    0    1    1.0678356    -21.76123    220    4    1.11    0.95    99.6432    -0.3535    0.0000    0.0000;
    182    1    0    0    0    0    1    1.063868    -24.73491    220    5    1.11    0.95    101.1180    0.8305    0.0000    0.0000;
    183    1    0    0    0    0    1    1.11    -31.694348    220    5    1.11    0.95    104.4421    -1.8081    1861.5694    0.0000;
    184    1    0    0    0    0    1    1.0275404    -31.317799    400    5    1.05    0.95    104.1476    -1.2745    0.0000    0.0000;
    185    1    0    0    0    0    1    1.0275436    -31.310859    400    5    1.05    0.95    104.1440    -1.2754    0.0000    0.0000;
    186    1    0    0    0    0    1    1.0179187    -33.636246    400    5    1.05    0.95    105.1032    0.3110    0.0000    0.0000;
    187    1    0    0    0    0    1    1.0179404    -33.643752    400    5    1.05    0.95    105.1071    0.3094    0.0000    0.0000;
    188    1    0    0    0    0    1    1.0778956    -31.850779    220    5    1.11    0.95    105.5364    -0.0614    0.0000    0.0000;
    189    1    0    0    0    0    1    1.0779468    -31.854197    220    5    1.11    0.95    105.5370    -0.0635    0.0000    0.0000;
    190    1    0    0    0    0    1    1.060876    -26.835974    220    5    1.11    0.95    102.4103    1.1790    0.0000    0.0000;
    191    1    0    0    0    0    1    1.0609263    -26.833741    220    5    1.11    0.95    102.4091    1.1774    0.0000    0.0000;
    192    1    0    0    0    0    1    1.0061829    -26.37235    400    5    1.05    0.95    101.7977    1.2095    0.0000    0.0000;
    193    1    0    0    0    0    1    1.0693967    -24.332532    220    5    1.11    0.95    100.9086    0.8349    0.0000    0.0000;
    194    1    0    0    0    0    1    1.0693881    -24.329742    220    5    1.11    0.95    100.9088    0.8356    0.0000    0.0000;
    195    1    0    0    0    0    1    1.0184099    -32.763078    400    5    1.05    0.95    104.9447    0.3712    0.0000    0.0000;
    196    1    0    0    0    0    1    1.0183911    -32.760735    400    5    1.05    0.95    104.9441    0.3718    0.0000    0.0000;
    197    1    0    0    0    0    1    1.0693764    -26.606702    220    5    1.11    0.95    102.9941    0.7578    0.0000    0.0000;
    198    1    0    0    0    0    1    1.0693398    -26.599683    220    5    1.11    0.95    102.9894    0.7586    0.0000    0.0000;
    199    1    0    0    0    0    1    1.0266211    -32.853512    400    5    1.05    0.95    104.7693    -0.7581    0.0000    0.0000;
    200    1    0    0    0    0    1    1.0266502    -32.840632    400    5    1.05    0.95    104.7640    -0.7604    0.0000    0.0000;
...
];

%% generator data
%    bus    Pg    Qg    Qmax    Qmin    Vg    mBase    status    Pmax    Pmin    Pc1    Pc2    Qc1min    Qc1max    Qc2min    Qc2max    ramp_agc    ramp_10    ramp_30    ramp_q    apf    mu_Pmax    mu_Pmin    mu_Qmax    mu_Qmin
mpc.gen = [
    17    140    -10    120    -10    1.09088    233.2    1    200    140    0    0    0    0    0    0    0    0    0    0    0    0.0000    15.5759    0.0000    0.0000;
    18    140    91.8892    120    -10    1.09091    233.2    1    200    140    0    0    0    0    0    0    0    0    0    0    0    0.0000    15.5746    0.0000    0.0000;
    26    0    0    220    -10    1.09091    430.5    0    370    290    0    0    0    0    0    0    0    0    0    0    0    0.0000    0.0000    0.0000    0.0000;
    26    360    104.419    220    -10    1.09091    421.9    1    360    290    0    0    0    0    0    0    0    0    0    0    0    14.8717    0.0000    0.0000    0.0000;
    27    360    -10    220    -10    1.09091    421.9    1    360    290    0    0    0    0    0    0    0    0    0    0    0    14.0299    0.0000    0.0000    0.0000;
    27    370    80.9866    220    -10    1.09091    430.5    1    370    290    0    0    0    0    0    0    0    0    0    0    0    14.0299    0.0000    0.0000    0.0000;
    27    370    81.5609    220    -10    1.09091    430.5    1    370    290    0    0    0    0    0    0    0    0    0    0    0    14.0299    0.0000    0.0000    0.0000;
    28    0    0    220    -10    1.0325    430.5    0    370    290    0    0    0    0    0    0    0    0    0    0    0    0.0000    0.0000    0.0000    0.0000;
    28    370    -3.4539    220    -10    1.0325    430.5    1    370    290    0    0    0    0    0    0    0    0    0    0    0    15.0767    0.0000    0.0000    0.0000;
    28    370    -3.4539    220    -10    1.0325    430.5    1    370    290    0    0    0    0    0    0    0    0    0    0    0    15.0767    0.0000    0.0000    0.0000;
    29    370    -10    220    -10    1.0325    430.5    1    370    290    0    0    0    0    0    0    0    0    0    0    0    15.0718    0.0000    0.0000    0.0017;
    29    370    -10    220    -10    1.0325    430.5    1    370    290    0    0    0    0    0    0    0    0    0    0    0    15.0718    0.0000    0.0000    0.0017;
    29    370    -10    220    -10    1.0325    430.5    1    370    290    0    0    0    0    0    0    0    0    0    0    0    15.0718    0.0000    0.0000    0.0017;
    43    135    -20    120    -20    1.09091    246.2    1    215    135    0    0    0    0    0    0    0    0    0    0    0    0.0000    7.7972    0.0000    0.6891;
    43    0    0    120    -20    1.09091    275.3    0    247.8    135    0    0    0    0    0    0    0    0    0    0    0    0.0000    0.0000    0.0000    0.0000;
    43    0    0    120    -20    1.09091    275.3    0    247.8    135    0    0    0    0    0    0    0    0    0    0    0    0.0000    0.0000    0.0000    0.0000;
    44    135    -20    120    -20    1.09096    255    1    225    135    0    0    0    0    0    0    0    0    0    0    0    0.0000    7.8012    0.0000    0.6908;
    44    135    -20    120    -20    1.09096    255    1    225    135    0    0    0    0    0    0    0    0    0    0    0    0.0000    7.8012    0.0000    0.6908;
    44    0    0    120    -20    1.09096    255    0    225    135    0    0    0    0    0    0    0    0    0    0    0    0.0000    0.0000    0.0000    0.0000;
    45    0    0    350    -40    1.0325    610.3    0    500    350    0    0    0    0    0    0    0    0    0    0    0    0.0000    0.0000    0.0000    0.0000;
    45    350    -40    350    -40    1.0325    610.3    1    500    350    0    0    0    0    0    0    0    0    0    0    0    0.0000    7.4900    0.0000    0.5862;
    55    130    -20    120    -20    1.09121    255    1    225    130    0    0    0    0    0    0    0    0    0    0    0    0.0000    11.0642    0.0000    1.1741;
    56    130    -20    120    -20    1.09115    255    1    225    130    0    0    0    0    0    0    0    0    0    0    0    0.0000    11.0669    0.0000    1.1766;
    56    0    0    120    -20    1.09115    255    0    225    130    0    0    0    0    0    0    0    0    0    0    0    0.0000    0.0000    0.0000    0.0000;
    57    130    -20    120    -20    1.03336    255    1    225    130    0    0    0    0    0    0    0    0    0    0    0    0.0000    10.8801    0.0000    1.2205;
    58    0    0    120    -20    1.03337    255    0    225    130    0    0    0    0    0    0    0    0    0    0    0    0.0000    0.0000    0.0000    0.0000;
    58    130    -20    120    -20    1.03337    255    1    225    130    0    0    0    0    0    0    0    0    0    0    0    0.0000    10.8784    0.0000    1.2215;
    58    0    0    120    -20    1.03337    255    0    225    130    0    0    0    0    0    0    0    0    0    0    0    0.0000    0.0000    0.0000    0.0000;
    59    63    0    28.8    0    1.08415    69.3    1    63    63    0    0    0    0    0    0    0    0    0    0    0    94.7184    0.0000    0.0000    0.7196;
    78    140    5    105    5    1.09091    248.3    1    225    140    0    0    0    0    0    0    0    0    0    0    0    0.0000    1.4345    0.0000    0.0000;
    78    140    50.0711    105    5    1.09091    248.3    1    225    140    0    0    0    0    0    0    0    0    0    0    0    0.0000    1.4345    0.0000    0.0000;
    79    0    0    105    5    1.09034    243.8    0    220    140    0    0    0    0    0    0    0    0    0    0    0    0.0000    0.0000    0.0000    0.0000;
    79    0    0    105    5    1.09034    248.3    0    225    140    0    0    0    0    0    0    0    0    0    0    0    0.0000    0.0000    0.0000    0.0000;
    79    140    5    105    5    1.09034    248.3    1    225    140    0    0    0    0    0    0    0    0    0    0    0    0.0000    1.1994    0.0000    0.1274;
    82    380    -37    192    -37    1.02993    425.8    1    380    220    0    0    0    0    0    0    0    0    0    0    0    1.2373    0.0000    0.0000    0.2746;
    82    370    -27.698    174    -27.698    1.02993    408.9    1    370    220    0    0    0    0    0    0    0    0    0    0    0    1.2373    0.0000    0.0000    0.2746;
    104    190.653    24.9606    113    -48    1.09091    251.8    1    225    120    0    0    0    0    0    0    0    0    0    0    0    0.0000    0.0000    0.0000    0.0000;
    105    0    0    113    -48    1.09091    251.8    0    225    134    0    0    0    0    0    0    0    0    0    0    0    0.0000    0.0000    0.0000    0.0000;
    106    79    38.0238    90    -5    1.09091    150    1    120    79    0    0    0    0    0    0    0    0    0    0    0    0.0000    1.3737    0.0000    0.0000;
    107    79    -5    90    -5    1.09091    150    1    120    79    0    0    0    0    0    0    0    0    0    0    0    0.0000    1.3711    0.0002    0.0000;
    116    0    0    90    -20    1.09042    150    0    120    90    0    0    0    0    0    0    0    0    0    0    0    0.0000    0.0000    0.0000    0.0000;
    117    70    -20    90    -20    1.09046    150    1    120    70    0    0    0    0    0    0    0    0    0    0    0    0.0000    3.0830    0.0000    0.1170;
    118    80    33    68    33    1.089    129.3    1    110    80    0    0    0    0    0    0    0    0    0    0    0    0.0000    5.0282    0.0000    0.2638;
    125    215    52.0648    113    -11    1.09091    242.9    1    215    160    0    0    0    0    0    0    0    0    0    0    0    1.1359    0.0000    0.0000    0.0000;
    126    225    84    84    -5    1.09082    240.2    1    225    140    0    0    0    0    0    0    0    0    0    0    0    1.1416    0.0000    0.0014    0.0000;
    126    0    0    80    -5    1.09082    229.4    0    215    160    0    0    0    0    0    0    0    0    0    0    0    0.0000    0.0000    0.0000    0.0000;
    127    225    -7.5    79    -7.5    1.02869    238.5    1    225    140    0    0    0    0    0    0    0    0    0    0    0    1.0016    0.0000    0.0000    0.1196;
    127    220    -10    100    -10    1.02869    241.7    1    220    160    0    0    0    0    0    0    0    0    0    0    0    1.0016    0.0000    0.0000    0.1196;
    132    0    0    0    0    1.09091    0    0    0    0    0    0    0    0    0    0    0    0    0    0    0    0.0000    0.0000    0.0000    0.0000;
    132    0    0    0    0    1.09091    0    0    0    0    0    0    0    0    0    0    0    0    0    0    0    0.0000    0.0000    0.0000    0.0000;
    133    0    0    0    0    1.09091    0    0    0    0    0    0    0    0    0    0    0    0    0    0    0    0.0000    0.0000    0.0000    0.0000;
    133    0    0    0    0    1.09091    0    0    0    0    0    0    0    0    0    0    0    0    0    0    0    0.0000    0.0000    0.0000    0.0000;
    134    0    0    90    0    1.08882    150    0    120    102    0    0    0    0    0    0    0    0    0    0    0    0.0000    0.0000    0.0000    0.0000;
    134    120    60.3687    90.001    0    1.08882    150    1    120    100    0    0    0    0    0    0    0    0    0    0    0    2.1817    0.0000    0.0000    0.0000;
    135    0    0    90    0    1.08867    150    0    120    102    0    0    0    0    0    0    0    0    0    0    0    0.0000    0.0000    0.0000    0.0000;
    146    50    -0.001    12    -0.001    1.09012    51.4    1    50    30    0    0    0    0    0    0    0    0    0    0    0    0.0000    0.0000    0.0000    0.0195;
    146    34.2659    -0.001    12    -0.001    1.09012    51.4    1    50    30    0    0    0    0    0    0    0    0    0    0    0    0.0000    0.0000    0.0000    0.0195;
    147    0    0    90    0    1.09011    150    0    120    90    0    0    0    0    0    0    0    0    0    0    0    0.0000    0.0000    0.0000    0.0000;
    148    90    0    120    0    1.09091    252.4    1    222    90    0    0    0    0    0    0    0    0    0    0    0    0.0000    14.5527    0.0000    1.5655;
    148    0    0    120    0    1.09091    237.5    0    205    135    0    0    0    0    0    0    0    0    0    0    0    0.0000    0.0000    0.0000    0.0000;
    148    0    0    120    0    1.09091    237.5    0    205    135    0    0    0    0    0    0    0    0    0    0    0    0.0000    0.0000    0.0000    0.0000;
    148    90    0    120    0    1.09091    252.4    1    222    90    0    0    0    0    0    0    0    0    0    0    0    0.0000    14.5527    0.0000    1.5655;
    150    90    0    120    0    1.03246    252.4    1    222    90    0    0    0    0    0    0    0    0    0    0    0    0.0000    14.1633    0.0000    1.7352;
    151    90    0    120    0    1.0325    252.4    1    222    90    0    0    0    0    0    0    0    0    0    0    0    0.0000    14.1607    0.0000    1.7356;
    151    0    0    120    0    1.0325    252.4    0    222    90    0    0    0    0    0    0    0    0    0    0    0    0.0000    0.0000    0.0000    0.0000;
    155    94    24.7759    120    0    1.09091    263.9    1    235    94    0    0    0    0    0    0    0    0    0    0    0    0.0000    4.6502    0.0000    0.0000;
    155    94    24.7759    120    0    1.09091    263.9    1    235    94    0    0    0    0    0    0    0    0    0    0    0    0.0000    4.6502    0.0000    0.0000;
    155    0    0    120    0    1.09091    237.5    0    205    130    0    0    0    0    0    0    0    0    0    0    0    0.0000    0.0000    0.0000    0.0000;
    155    104    0    120    0    1.09091    287.3    1    261    104    0    0    0    0    0    0    0    0    0    0    0    0.0000    4.6502    0.0000    0.0000;
    156    0    0    120    0    1.09091    237.5    0    205    130    0    0    0    0    0    0    0    0    0    0    0    0.0000    0.0000    0.0000    0.0000;
    156    130    0    120    0    1.09091    237.5    1    205    130    0    0    0    0    0    0    0    0    0    0    0    0.0000    4.4275    0.0000    0.0000;
    156    120    48.0433    120    0    1.09091    238.4    1    206    120    0    0    0    0    0    0    0    0    0    0    0    0.0000    4.4275    0.0000    0.0000;
    156    120    0    120    0    1.09091    238.4    1    206    120    0    0    0    0    0    0    0    0    0    0    0    0.0000    4.4275    0.0000    0.0000;
    159    120    0    120    0    1.00535    238.4    1    206    120    0    0    0    0    0    0    0    0    0    0    0    0.0000    4.6973    0.0000    0.1124;
    165    200    64.1328    120    0    1.09084    233.2    1    200    150    0    0    0    0    0    0    0    0    0    0    0    7.3219    0.0000    0.0000    0.0000;
    165    0    0    120    0    1.09084    233.2    0    200    150    0    0    0    0    0    0    0    0    0    0    0    0.0000    0.0000    0.0000    0.0000;
    166    200    0    120    0    1.09091    233.2    1    200    150    0    0    0    0    0    0    0    0    0    0    0    7.3312    0.0000    0.0012    0.0000;
    165    0    0    120    0    1.09084    233.2    0    200    150    0    0    0    0    0    0    0    0    0    0    0    0.0000    0.0000    0.0000    0.0000;
    205    0    73.1915    80    -30    1.0325    196.1    1    0    0    0    0    0    0    0    0    0    0    0    0    0    105.9074    0.0000    0.0002    0.0000;
    205    0    -30    80    -30    1.0325    196.1    1    0    0    0    0    0    0    0    0    0    0    0    0    0    105.9074    0.0000    0.0002    0.0000;
    205    0    -30    80    -30    1.0325    196.1    1    0    0    0    0    0    0    0    0    0    0    0    0    0    105.9074    0.0000    0.0002    0.0000;
    206    0    -30    80    -30    1.0325    196.1    1    0    0    0    0    0    0    0    0    0    0    0    0    0    105.9064    0.0000    0.0017    0.0000;
    215    37.079    0    20    0    1.08646    58.5    1    37.079    37.079    0    0    0    0    0    0    0    0    0    0    0    94.4391    0.0000    0.0000    2.1719;
    215    33.708    0    20    0    1.08646    53.9    1    33.708    33.708    0    0    0    0    0    0    0    0    0    0    0    94.4391    0.0000    0.0000    2.1719;
    215    33.708    0    20    0    1.08646    53.9    1    33.708    33.708    0    0    0    0    0    0    0    0    0    0    0    94.4391    0.0000    0.0000    2.1719;
    215    15.506    0    20    0    1.08646    30.5    1    15.506    15.506    0    0    0    0    0    0    0    0    0    0    0    94.4391    0.0000    0.0000    2.1719;
    229    5.5    1.5    1.5    0    1.06367    7.3    1    5.5    5.5    0    0    0    0    0    0    0    0    0    0    0    93.6474    0.0000    0.1449    0.0000;
    230    5.5    7    7    0    1.06392    10    1    5.5    5.5    0    0    0    0    0    0    0    0    0    0    0    93.6442    0.0000    0.1324    0.0000;
    239    3    8    8    0    1.03337    15.4    1    3    3    0    0    0    0    0    0    0    0    0    0    0    98.9912    0.0000    0.4628    0.0000;
    246    370    135.153    220    -14    1.03502    430.5    1    370    290    0    0    0    0    0    0    0    0    0    0    0    14.3966    0.0000    0.0000    0.0000;
    291    2    1.18695    2    0    1.06439    3.2    1    2    2    0    0    0    0    0    0    0    0    0    0    0    96.0463    0.0000    0.0000    0.0000;
    294    2    2    2    0    1.05278    4.8    1    2    2    0    0    0    0    0    0    0    0    0    0    0    98.8780    0.0000    0.0223    0.0000;
    306    9.167    7    7    0    1.05332    24    1    9.167    9.167    0    0    0    0    0    0    0    0    0    0    0    93.5638    0.0000    0.3806    0.0000;
    306    16.296    7    7    0    1.05332    27.9    1    16.296    16.296    0    0    0    0    0    0    0    0    0    0    0    93.5638    0.0000    0.3806    0.0000;
    306    11.204    7.617    7.617    6    1.05332    31    1    11.204    11.204    0    0    0    0    0    0    0    0    0    0    0    93.5638    0.0000    0.3806    0.0000;
    306    9.167    7    7    0    1.05332    26.9    1    9.167    9.167    0    0    0    0    0    0    0    0    0    0    0    93.5638    0.0000    0.3806    0.0000;
    306    9.167    7.929    7.929    0    1.05332    28.1    1    9.167    9.167    0    0    0    0    0    0    0    0    0    0    0    93.5638    0.0000    0.3806    0.0000;
    307    36.5    15    15    0    1.05854    57    1    36.5    36.5    0    0    0    0    0    0    0    0    0    0    0    93.6380    0.0000    0.1551    0.0000;
    307    36.5    15    15    0    1.05854    57    1    36.5    36.5    0    0    0    0    0    0    0    0    0    0    0    93.6380    0.0000    0.1551    0.0000;
    308    32    15    15    0    1.067    36.7    1    32    32    0    0    0    0    0    0    0    0    0    0    0    93.0280    0.0000    0.0000    0.0000;
    308    40    13.385    16.829    0    1.067    57.5    1    40    40    0    0    0    0    0    0    0    0    0    0    0    93.0280    0.0000    0.0000    0.0000;
    310    35    20    20    0    1.07303    53.9    1    35    35    0    0    0    0    0    0    0    0    0    0    0    92.3616    0.0000    0.2446    0.0000;
    310    75    25.599    25.599    0    1.07303    103.2    1    75    75    0    0    0    0    0    0    0    0    0    0    0    92.3616    0.0000    0.2446    0.0000;
    311    45    36.9252    40    0    1.06272    64    1    45    45    0    0    0    0    0    0    0    0    0    0    0    92.6966    0.0000    0.0000    0.0000;
    319    2    3    3    0    1.07001    4.1    1    2    2    0    0    0    0    0    0    0    0    0    0    0    92.5697    0.0000    0.3046    0.0000;
    345    1    1    1    0    1.04796    1.9    1    1    1    0    0    0    0    0    0    0    0    0    0    0    98.3369    0.0000    0.2128    0.0000;
    362    40    12    12    0    1.08888    47.8    1    40    40    0    0    0    0    0    0    0    0    0    0    0    97.5443    0.0000    0.8758    0.0000;
    363    40    12    12    0    1.06039    47.8    1    40    40    0    0    0    0    0    0    0    0    0    0    0    97.3376    0.0000    0.2491    0.0000;
    364    0    0    12    0    1.1049    47.8    0    0    0    0    0    0    0    0    0    0    0    0    0    0    0.0000    0.0000    0.0000    0.0000;
    364    46    12    12    0    1.1049    71    1    46    46    0    0    0    0    0    0    0    0    0    0    0    97.1931    0.0000    0.9222    0.0000;
    365    40    12    12    0    1.06981    47.8    1    40    40    0    0    0    0    0    0    0    0    0    0    0    97.1158    0.0000    0.0480    0.0000;
    365    40    12    12    0    1.06981    47.8    1    40    40    0    0    0    0    0    0    0    0    0    0    0    97.1158    0.0000    0.0480    0.0000;
    368    1    1    1    0    1.07107    1.9    1    1    1    0    0    0    0    0    0    0    0    0    0    0    100.4026    0.0000    0.2196    0.0000;
    382    15    10    10    0    1.08182    55.9    1    55    15    0    0    0    0    0    0    0    0    0    0    0    0.0000    16.5255    0.0000    0.0000;
    382    120    39.2284    120    -10    1.08182    255.9    1    226    120    0    0    0    0    0    0    0    0    0    0    0    0.0000    16.5255    0.0000    0.0000;
    383    15    0    10    0    1.10054    55.9    1    55    15    0    0    0    0    0    0    0    0    0    0    0    0.0000    15.6785    0.0000    0.3317;
    386    2.5    2    2    0    1.05805    4.8    1    2.5    2.5    0    0    0    0    0    0    0    0    0    0    0    94.4187    0.0000    0.1994    0.0000;
    395    1    1    1    0    1.06558    1.9    1    1    1    0    0    0    0    0    0    0    0    0    0    0    97.2930    0.0000    0.0918    0.0000;
    421    4    4    4    0    1.04857    7.7    1    4    4    0    0    0    0    0    0    0    0    0    0    0    97.6622    0.0000    0.4569    0.0000;
    426    3    3    3    0    1.07431    4.5    1    3    3    0    0    0    0    0    0    0    0    0    0    0    92.3661    0.0000    0.3703    0.0000;
    431    5    8    8    0    1.08943    13.6    1    5    5    0    0    0    0    0    0    0    0    0    0    0    98.9857    0.0000    0.2846    0.0000;
    440    2    2    2    0    1.0288    3.6    1    2    2    0    0    0    0    0    0    0    0    0    0    0    92.1929    0.0000    0.5449    0.0000;
    447    3.5    0    20    0    1.0498    21.3    1    3.5    3.5    0    0    0    0    0    0    0    0    0    0    0    96.8994    0.0000    0.0000    0.0459;
    447    3.5    0    20    0    1.0498    21.3    1    3.5    3.5    0    0    0    0    0    0    0    0    0    0    0    96.8994    0.0000    0.0000    0.0459;
    463    0    0    2    0    1.0465    4    1    0    0    0    0    0    0    0    0    0    0    0    0    0    97.8817    0.0000    0.0000    0.0795;
    482    1.4    0.7    0.7    0    1.02656    1.7    1    1.4    1.4    0    0    0    0    0    0    0    0    0    0    0    92.8550    0.0000    0.3906    0.0000;
    490    3    3    3    0    1.05535    5.3    1    3    3    0    0    0    0    0    0    0    0    0    0    0    96.2362    0.0000    0.1945    0.0000;
    522    0    0    1    0    1.06929    1.9    1    0    0    0    0    0    0    0    0    0    0    0    0    0    92.7133    0.0000    0.0000    0.5925;
    533    0.5    1    1    0    1.07198    1.9    1    0.5    0.5    0    0    0    0    0    0    0    0    0    0    0    97.7699    0.0000    0.4967    0.0000;
    534    35.89    14    14    0    1.06429    53.9    1    35.89    35.89    0    0    0    0    0    0    0    0    0    0    0    95.3474    0.0000    0.0000    0.0000;
    534    22.086    9.23653    14    0    1.06429    34.9    1    22.086    22.086    0    0    0    0    0    0    0    0    0    0    0    95.3474    0.0000    0.0000    0.0000;
    534    22.086    9.23653    14    0    1.06429    34.9    1    22.086    22.086    0    0    0    0    0    0    0    0    0    0    0    95.3474    0.0000    0.0000    0.0000;
    534    72.469    11.4277    14    0    1.06429    105.9    1    72.469    72.469    0    0    0    0    0    0    0    0    0    0    0    95.3474    0.0000    0.0000    0.0000;
    534    72.469    11.4277    14    0    1.06429    105.9    1    72.469    72.469    0    0    0    0    0    0    0    0    0    0    0    95.3474    0.0000    0.0000    0.0000;
    535    24.573    14.7746    17.5    0    1.05783    36.5    1    24.573    24.573    0    0    0    0    0    0    0    0    0    0    0    95.0714    0.0000    0.0000    0.0000;
    535    23.805    14.8864    17.5    0    1.05783    35.6    1    23.805    23.805    0    0    0    0    0    0    0    0    0    0    0    95.0714    0.0000    0.0000    0.0000;
    535    95.99    15.7424    17.5    0    1.05783    126.2    1    95.99    95.99    0    0    0    0    0    0    0    0    0    0    0    95.0714    0.0000    0.0000    0.0000;
    535    80.631    8.02398    17.5    0    1.05783    106.4    1    80.631    80.631    0    0    0    0    0    0    0    0    0    0    0    95.0714    0.0000    0.0000    0.0000;
    549    1    0.7    0.7    0    1.0394    1.7    1    1    1    0    0    0    0    0    0    0    0    0    0    0    97.3005    0.0000    0.5909    0.0000;
    557    25.724    5.051    5.051    0    1.04037    34.4    1    25.724    25.724    0    0    0    0    0    0    0    0    0    0    0    96.7147    0.0000    0.4648    0.0000;
    557    21.184    5.051    5.051    0    1.04037    28.5    1    21.184    21.184    0    0    0    0    0    0    0    0    0    0    0    96.7147    0.0000    0.4648    0.0000;
    557    19.671    5    5    0    1.04037    26.5    1    19.671    19.671    0    0    0    0    0    0    0    0    0    0    0    96.7147    0.0000    0.4648    0.0000;
    557    22.697    5.051    5.051    0    1.04037    30.4    1    22.697    22.697    0    0    0    0    0    0    0    0    0    0    0    96.7147    0.0000    0.4648    0.0000;
    557    25.724    5.051    5.051    0    1.04037    34.4    1    25.724    25.724    0    0    0    0    0    0    0    0    0    0    0    96.7147    0.0000    0.4648    0.0000;
    558    31.032    5.064    5.064    0    1.03685    34.4    1    31.032    31.032    0    0    0    0    0    0    0    0    0    0    0    96.9085    0.0000    0.5815    0.0000;
    558    31.032    5.064    5.064    0    1.03685    34.4    1    31.032    31.032    0    0    0    0    0    0    0    0    0    0    0    96.9085    0.0000    0.5815    0.0000;
    558    22.817    5    5    0    1.03685    26.5    1    22.817    22.817    0    0    0    0    0    0    0    0    0    0    0    96.9085    0.0000    0.5815    0.0000;
    558    30.119    5.064    5.064    0    1.03685    34.4    1    30.119    30.119    0    0    0    0    0    0    0    0    0    0    0    96.9085    0.0000    0.5815    0.0000;
    581    3    3    3    0    1.0494    5.3    1    3    3    0    0    0    0    0    0    0    0    0    0    0    99.2225    0.0000    0.0572    0.0000;
    594    2.07    0    1.08    0    1.06495    4.4    1    2.07    2.07    0    0    0    0    0    0    0    0    0    0    0    95.9622    0.0000    0.0000    0.5658;
    601    4.05    0    1.8    0    1.06191    4.4    1    4.05    4.05    0    0    0    0    0    0    0    0    0    0    0    96.1134    0.0000    0.0000    0.5785;
    622    110    -0.001    30    -0.001    1.0778    114    1    110    110    0    0    0    0    0    0    0    0    0    0    0    93.5080    0.0000    0.0000    0.3628;
    622    0    0    30    0    1.0778    65.3    0    0    0    0    0    0    0    0    0    0    0    0    0    0    0.0000    0.0000    0.0000    0.0000;
    626    2.25    0    0.9    0    1.07287    2.4    1    2.25    2.25    0    0    0    0    0    0    0    0    0    0    0    94.8395    0.0000    0.0000    0.8354;
    630    4.5    0    2.52    0    1.06945    5.2    1    4.5    4.5    0    0    0    0    0    0    0    0    0    0    0    95.5855    0.0000    0.0000    0.3682;
    631    5.4    0    2.52    0    1.06942    6    1    5.4    5.4    0    0    0    0    0    0    0    0    0    0    0    95.5638    0.0000    0.0000    0.3795;
    655    0.81    0    0.36    0    1.03169    0.9    1    0.81    0.81    0    0    0    0    0    0    0    0    0    0    0    97.6114    0.0000    0.0000    0.1649;
    660    135    31.0861    120    -20    1.08206    255    1    225    135    0    0    0    0    0    0    0    0    0    0    0    0.0000    9.1261    0.0000    0.0000;
    661    135    -20    120    -20    1.08182    255    1    225    135    0    0    0    0    0    0    0    0    0    0    0    0.0000    9.1168    0.0000    0.0008;
    667    1.89    0    0.72    0    1.03727    2    1    1.89    1.89    0    0    0    0    0    0    0    0    0    0    0    97.0908    0.0000    0.0000    0.1969;
    671    7.65    0    2.7    0    1.06812    8.6    1    7.65    7.65    0    0    0    0    0    0    0    0    0    0    0    95.8939    0.0000    0.0000    0.5902;
    673    2.7    0    0.9    0    1.06495    4.4    1    2.7    2.7    0    0    0    0    0    0    0    0    0    0    0    95.8719    0.0000    0.0000    0.5444;
    681    190    0    30    0    1.08024    192.4    1    190    190    0    0    0    0    0    0    0    0    0    0    0    93.9283    0.0000    0.0000    0.7815;
    681    24.998    0    30    0    1.08024    77.5    1    24.998    24.998    0    0    0    0    0    0    0    0    0    0    0    93.9283    0.0000    0.0000    0.7815;
    687    9    0    4.5    0    1.07512    10.1    1    9    9    0    0    0    0    0    0    0    0    0    0    0    94.6651    0.0000    0.0000    0.8043;
    699    5.4    0    2.7    0    1.0746    6    1    5.4    5.4    0    0    0    0    0    0    0    0    0    0    0    94.7284    0.0000    0.0000    0.7189;
    702    0.9    0    0.9    0    1.0721    1.3    1    0.9    0.9    0    0    0    0    0    0    0    0    0    0    0    94.8669    0.0000    0.0000    0.9548;
    712    9    0    2    0    1.07103    9.2    1    9    9    0    0    0    0    0    0    0    0    0    0    0    94.2161    0.0000    0.0000    0.7843;
    718    1.44    0    0.36    0    1.03111    1.5    1    1.44    1.44    0    0    0    0    0    0    0    0    0    0    0    97.6437    0.0000    0.0000    0.1589;
    722    2.25    0    0.9    0    1.06069    2.4    1    2.25    2.25    0    0    0    0    0    0    0    0    0    0    0    96.1198    0.0000    0.0000    0.6776;
    731    1.35    0    0.45    0    1.06199    4.3    1    1.35    1.35    0    0    0    0    0    0    0    0    0    0    0    95.3525    0.0000    0.0000    1.3409;
    736    130    -20    120    -20    1.08182    255    1    225    130    0    0    0    0    0    0    0    0    0    0    0    0.0000    12.1228    0.0000    0.9490;
    740    1.8    0    0    0    1.06599    4.3    1    1.8    1.8    0    0    0    0    0    0    0    0    0    0    0    94.7195    0.0000    0.0000    0.6066;
    747    4.68    0    2.7    0    1.04853    5.4    1    4.68    4.68    0    0    0    0    0    0    0    0    0    0    0    97.8471    0.0000    0.0000    0.2746;
    759    90    0    30    0    1.0699    105.2    1    90    90    0    0    0    0    0    0    0    0    0    0    0    93.9174    0.0000    0.0000    0.6329;
    760    0    0    0    0    1.06824    1.3    0    0    0    0    0    0    0    0    0    0    0    0    0    0    0.0000    0.0000    0.0000    0.0000;
    778    9    0    30    0    1.05918    31.3    1    9    9    0    0    0    0    0    0    0    0    0    0    0    95.4277    0.0000    0.0000    0.6291;
    780    1.26    0    0.63    0    1.07776    1.4    1    1.26    1.26    0    0    0    0    0    0    0    0    0    0    0    93.5136    0.0000    0.0000    0.3631;
    783    6    0    3    0    1.07336    6.7    1    6    6    0    0    0    0    0    0    0    0    0    0    0    94.8328    0.0000    0.0000    0.7772;
    788    2    0    1    0    1.04756    95.9    1    2    2    0    0    0    0    0    0    0    0    0    0    0    97.6750    0.0000    0.0000    0.2928;
    792    0    0    23    0    1.05369    71.8    0    0    0    0    0    0    0    0    0    0    0    0    0    0    0.0000    0.0000    0.0000    0.0000;
    792    0    0    23    0    1.05369    71.8    0    0    0    0    0    0    0    0    0    0    0    0    0    0    0.0000    0.0000    0.0000    0.0000;
    792    0    0    11    0    1.05369    23.7    0    0    0    0    0    0    0    0    0    0    0    0    0    0    0.0000    0.0000    0.0000    0.0000;
    792    0    0    10    0    1.05369    23.3    0    0    0    0    0    0    0    0    0    0    0    0    0    0    0.0000    0.0000    0.0000    0.0000;
    803    0    0    10    0    1.08195    55.9    1    55    0    0    0    0    0    0    0    0    0    0    0    0    0.0000    16.4810    0.0000    0.9588;
    804    0    0    10    0    1.07278    120.4    1    120    0    0    0    0    0    0    0    0    0    0    0    0    0.0000    15.5620    0.0000    0.4856;
    809    0    0    0    0    1.07004    3.3    0    0    0    0    0    0    0    0    0    0    0    0    0    0    0.0000    0.0000    0.0000    0.0000;
...